<?xml version="1.0" encoding="UTF-8"?>

<!-- generated on 2023-09-16 22:44:49 by Eclipse SUMO netedit Version 1.18.0
<configuration xmlns:xsi="http://www.w3.org/2001/XMLSchema-instance" xsi:noNamespaceSchemaLocation="http://sumo.dlr.de/xsd/neteditConfiguration.xsd">

    <input>
        <sumocfg-file value="/opt/homebrew/Cellar/sumo/1.18.0/share/sumo/simulationen/text.sumocfg"/>
        <sumo-net-file value="/opt/homebrew/Cellar/sumo/1.18.0/share/sumo/simulationen/network_v1.net.xml"/>
    </input>

    <output>
        <output-file value="/opt/homebrew/Cellar/sumo/1.18.0/share/sumo/simulationen/network_v1.net.xml"/>
    </output>

    <processing>
        <geometry.min-radius.fix.railways value="false"/>
        <geometry.max-grade.fix value="false"/>
        <offset.disable-normalization value="true"/>
        <lefthand value="0"/>
    </processing>

    <junctions>
        <no-turnarounds value="true"/>
        <junctions.corner-detail value="5"/>
        <junctions.limit-turn-speed value="5.50"/>
        <rectangular-lane-cut value="0"/>
    </junctions>

    <pedestrian>
        <walkingareas value="0"/>
    </pedestrian>

</configuration>
-->

<net version="1.16" junctionCornerDetail="5" limitTurnSpeed="5.50" xmlns:xsi="http://www.w3.org/2001/XMLSchema-instance" xsi:noNamespaceSchemaLocation="http://sumo.dlr.de/xsd/net_file.xsd">

    <location netOffset="0.00,0.00" convBoundary="-11.88,21.69,122.68,86.88" origBoundary="-10000000000.00,-10000000000.00,10000000000.00,10000000000.00" projParameter="!"/>

    <edge id=":J1_0" function="internal">
        <lane id=":J1_0_0" index="0" speed="6.51" length="9.04" shape="53.51,61.66 53.16,59.20 52.11,57.44 50.36,56.39 47.91,56.04"/>
    </edge>
    <edge id=":J1_1" function="internal">
        <lane id=":J1_1_0" index="0" speed="13.89" length="20.82" shape="53.51,61.66 53.51,40.84"/>
    </edge>
    <edge id=":J1_2" function="internal">
        <lane id=":J1_2_0" index="0" speed="8.66" length="5.56" shape="53.51,61.66 54.06,56.40 54.17,56.15"/>
    </edge>
    <edge id=":J1_13" function="internal">
        <lane id=":J1_13_0" index="0" speed="8.66" length="11.32" shape="54.17,56.15 55.72,52.65 58.48,50.41 62.35,49.68"/>
    </edge>
    <edge id=":J1_3" function="internal">
        <lane id=":J1_3_0" index="0" speed="6.50" length="9.03" shape="62.32,56.08 59.86,56.42 58.11,57.46 57.06,59.20 56.71,61.66"/>
    </edge>
    <edge id=":J1_4" function="internal">
        <lane id=":J1_4_0" index="0" speed="13.89" length="14.42" shape="62.32,56.08 47.91,56.04"/>
        <lane id=":J1_4_1" index="1" speed="13.89" length="14.42" shape="62.33,52.88 47.91,52.84"/>
    </edge>
    <edge id=":J1_6" function="internal">
        <lane id=":J1_6_0" index="0" speed="8.70" length="3.71" shape="62.33,52.88 58.69,52.15"/>
    </edge>
    <edge id=":J1_14" function="internal">
        <lane id=":J1_14_0" index="0" speed="8.70" length="13.17" shape="58.69,52.15 58.47,52.11 55.72,49.85 54.06,46.09 53.51,40.84"/>
    </edge>
    <edge id=":J1_7" function="internal">
        <lane id=":J1_7_0" index="0" speed="6.54" length="9.10" shape="56.71,40.84 57.06,43.29 58.12,45.05 59.89,46.11 62.37,46.48"/>
    </edge>
    <edge id=":J1_8" function="internal">
        <lane id=":J1_8_0" index="0" speed="13.89" length="20.82" shape="56.71,40.84 56.71,61.66"/>
    </edge>
    <edge id=":J1_9" function="internal">
        <lane id=":J1_9_0" index="0" speed="8.67" length="5.56" shape="56.71,40.84 56.16,46.09 56.05,46.35"/>
    </edge>
    <edge id=":J1_15" function="internal">
        <lane id=":J1_15_0" index="0" speed="8.67" length="11.29" shape="56.05,46.35 54.51,49.84 51.76,52.09 47.91,52.84"/>
    </edge>
    <edge id=":J1_10" function="internal">
        <lane id=":J1_10_0" index="0" speed="6.51" length="9.03" shape="47.91,46.44 50.36,46.09 52.11,45.04 53.16,43.29 53.51,40.84"/>
    </edge>
    <edge id=":J1_11" function="internal">
        <lane id=":J1_11_0" index="0" speed="13.89" length="14.45" shape="47.91,46.44 62.37,46.48"/>
        <lane id=":J1_11_1" index="1" speed="13.89" length="14.45" shape="47.91,49.64 62.35,49.68"/>
    </edge>

    <edge id="-E0" from="J1" to="J0" priority="-1">
        <lane id="-E0_0" index="0" speed="13.89" length="59.79" shape="47.91,56.04 -11.88,56.04"/>
        <lane id="-E0_1" index="1" speed="13.89" length="59.79" shape="47.91,52.84 -11.88,52.84"/>
    </edge>
    <edge id="-E1" from="J2" to="J1" priority="-1">
        <lane id="-E1_0" index="0" speed="13.89" length="60.34" shape="122.66,56.39 62.32,56.08"/>
        <lane id="-E1_1" index="1" speed="13.89" length="60.34" shape="122.67,53.19 62.33,52.88"/>
    </edge>
    <edge id="-E2" from="J3" to="J1" priority="-1">
        <lane id="-E2_0" index="0" speed="13.89" length="25.22" shape="53.51,86.88 53.51,61.66"/>
    </edge>
    <edge id="-E3" from="J4" to="J1" priority="-1">
        <lane id="-E3_0" index="0" speed="13.89" length="19.15" shape="56.71,21.69 56.71,40.84"/>
    </edge>
    <edge id="E0" from="J0" to="J1" priority="-1" shape="-11.88,51.24 18.04,51.23 55.11,51.24">
        <lane id="E0_0" index="0" speed="13.89" length="59.79" shape="-11.88,46.44 18.04,46.43 47.91,46.44"/>
        <lane id="E0_1" index="1" speed="13.89" length="59.79" shape="-11.88,49.64 18.04,49.63 47.91,49.64"/>
    </edge>
    <edge id="E1" from="J1" to="J2" priority="-1">
        <lane id="E1_0" index="0" speed="13.89" length="60.34" shape="62.37,46.48 122.70,46.79"/>
        <lane id="E1_1" index="1" speed="13.89" length="60.34" shape="62.35,49.68 122.69,49.99"/>
    </edge>
    <edge id="E2" from="J1" to="J3" priority="-1">
        <lane id="E2_0" index="0" speed="13.89" length="25.22" shape="56.71,61.66 56.71,86.88"/>
    </edge>
    <edge id="E3" from="J1" to="J4" priority="-1">
        <lane id="E3_0" index="0" speed="13.89" length="19.15" shape="53.51,40.84 53.51,21.69"/>
    </edge>

    <tlLogic id="J1" type="static" programID="0" offset="0">
        <phase duration="40" state="rrrGGGgrrrGGGrrrrrrrr"/>
        <phase duration="3"  state="rrryyyyrrryyyrrrrrrrr"/>
        <phase duration="35" state="GGgrrrrGGgrrrrrrrrrrr"/>
        <phase duration="3"  state="yyyrrrryyyrrrrrrrrrrr"/>
    </tlLogic>

    <junction id="J0" type="dead_end" x="-11.88" y="51.24" incLanes="-E0_0 -E0_1" intLanes="" shape="-11.88,51.24 -11.88,44.84 -11.88,57.64"/>
    <junction id="J1" type="traffic_light" x="55.11" y="51.24" incLanes="-E2_0 -E1_0 -E1_1 -E3_0 E0_0 E0_1" intLanes=":J1_0_0 :J1_1_0 :J1_13_0 :J1_3_0 :J1_4_0 :J1_4_1 :J1_14_0 :J1_7_0 :J1_8_0 :J1_15_0 :J1_10_0 :J1_11_0 :J1_11_1" shape="51.91,61.66 58.31,61.66 58.75,59.44 59.31,58.66 60.09,58.11 61.09,57.78 62.31,57.68 62.38,44.88 60.12,44.42 59.33,43.86 58.76,43.07 58.42,42.07 58.31,40.84 51.91,40.84 51.47,43.06 50.91,43.84 50.13,44.39 49.13,44.73 47.91,44.84 47.91,57.64 50.13,58.09 50.91,58.64 51.47,59.43 51.80,60.43">
        <request index="0"  response="0000000110000" foes="0000000110000" cont="0"/>
        <request index="1"  response="1110001110000" foes="1111001110000" cont="0"/>
        <request index="2"  response="1100101110000" foes="1100101110000" cont="1"/>
        <request index="3"  response="0000000000000" foes="0000100000000" cont="0"/>
        <request index="4"  response="0001000000100" foes="0001100000111" cont="0"/>
        <request index="5"  response="0001000000100" foes="0001100000111" cont="0"/>
        <request index="6"  response="1111000000100" foes="1111100000110" cont="1"/>
        <request index="7"  response="1100000000000" foes="1100000000000" cont="0"/>
        <request index="8"  response="1100001111000" foes="1100001111100" cont="0"/>
        <request index="9"  response="1100001110010" foes="1100001110010" cont="1"/>
        <request index="10" response="0000000000000" foes="0000001000010" cont="0"/>
        <request index="11" response="0001000000100" foes="0001111000110" cont="0"/>
        <request index="12" response="0001000000100" foes="0001111000110" cont="0"/>
    </junction>
    <junction id="J2" type="dead_end" x="122.68" y="51.59" incLanes="E1_0 E1_1" intLanes="" shape="122.68,51.59 122.71,45.19 122.68,51.59"/>
    <junction id="J3" type="dead_end" x="55.11" y="86.88" incLanes="E2_0" intLanes="" shape="55.11,86.88 58.31,86.88 55.11,86.88"/>
    <junction id="J4" type="dead_end" x="55.11" y="21.69" incLanes="E3_0" intLanes="" shape="55.11,21.69 51.91,21.69 55.11,21.69"/>

    <junction id=":J1_13_0" type="internal" x="54.17" y="56.15" incLanes=":J1_2_0 -E3_0" intLanes=":J1_4_0 :J1_4_1 :J1_6_0 :J1_7_0 :J1_8_0 :J1_11_0 :J1_11_1"/>
    <junction id=":J1_14_0" type="internal" x="58.69" y="52.15" incLanes=":J1_6_0 E0_0 E0_1" intLanes=":J1_1_0 :J1_2_0 :J1_8_0 :J1_9_0 :J1_10_0 :J1_11_0 :J1_11_1"/>
    <junction id=":J1_15_0" type="internal" x="56.05" y="46.35" incLanes=":J1_9_0 -E2_0" intLanes=":J1_0_0 :J1_1_0 :J1_4_0 :J1_4_1 :J1_6_0 :J1_11_0 :J1_11_1"/>

    <connection from="-E1" to="E2" fromLane="0" toLane="0" via=":J1_3_0" tl="J1" linkIndex="3" dir="r" state="O"/>
    <connection from="-E1" to="-E0" fromLane="0" toLane="0" via=":J1_4_0" tl="J1" linkIndex="4" dir="s" state="O"/>
    <connection from="-E1" to="-E0" fromLane="1" toLane="1" via=":J1_4_1" tl="J1" linkIndex="5" dir="s" state="O"/>
    <connection from="-E1" to="E3" fromLane="1" toLane="0" via=":J1_6_0" tl="J1" linkIndex="6" dir="l" state="o"/>
    <connection from="-E2" to="-E0" fromLane="0" toLane="0" via=":J1_0_0" tl="J1" linkIndex="0" dir="r" state="o"/>
    <connection from="-E2" to="E3" fromLane="0" toLane="0" via=":J1_1_0" tl="J1" linkIndex="1" dir="s" state="o"/>
    <connection from="-E2" to="E1" fromLane="0" toLane="1" via=":J1_2_0" tl="J1" linkIndex="2" dir="l" state="o"/>
    <connection from="-E3" to="E1" fromLane="0" toLane="0" via=":J1_7_0" tl="J1" linkIndex="7" dir="r" state="o"/>
    <connection from="-E3" to="E2" fromLane="0" toLane="0" via=":J1_8_0" tl="J1" linkIndex="8" dir="s" state="o"/>
    <connection from="-E3" to="-E0" fromLane="0" toLane="1" via=":J1_9_0" tl="J1" linkIndex="9" dir="l" state="o"/>
    <connection from="E0" to="E3" fromLane="0" toLane="0" via=":J1_10_0" tl="J1" linkIndex="10" dir="r" state="O"/>
    <connection from="E0" to="E1" fromLane="0" toLane="0" via=":J1_11_0" tl="J1" linkIndex="11" dir="s" state="O"/>
    <connection from="E0" to="E1" fromLane="1" toLane="1" via=":J1_11_1" tl="J1" linkIndex="12" dir="s" state="O"/>

    <connection from=":J1_0" to="-E0" fromLane="0" toLane="0" dir="r" state="M"/>
    <connection from=":J1_1" to="E3" fromLane="0" toLane="0" dir="s" state="M"/>
    <connection from=":J1_2" to="E1" fromLane="0" toLane="1" via=":J1_13_0" dir="l" state="m"/>
    <connection from=":J1_13" to="E1" fromLane="0" toLane="1" dir="l" state="M"/>
    <connection from=":J1_3" to="E2" fromLane="0" toLane="0" dir="r" state="M"/>
    <connection from=":J1_4" to="-E0" fromLane="0" toLane="0" dir="s" state="M"/>
    <connection from=":J1_4" to="-E0" fromLane="1" toLane="1" dir="s" state="M"/>
    <connection from=":J1_6" to="E3" fromLane="0" toLane="0" via=":J1_14_0" dir="l" state="m"/>
    <connection from=":J1_14" to="E3" fromLane="0" toLane="0" dir="l" state="M"/>
    <connection from=":J1_7" to="E1" fromLane="0" toLane="0" dir="r" state="M"/>
    <connection from=":J1_8" to="E2" fromLane="0" toLane="0" dir="s" state="M"/>
    <connection from=":J1_9" to="-E0" fromLane="0" toLane="1" via=":J1_15_0" dir="l" state="m"/>
    <connection from=":J1_15" to="-E0" fromLane="0" toLane="1" dir="l" state="M"/>
    <connection from=":J1_10" to="E3" fromLane="0" toLane="0" dir="r" state="M"/>
    <connection from=":J1_11" to="E1" fromLane="0" toLane="0" dir="s" state="M"/>
    <connection from=":J1_11" to="E1" fromLane="1" toLane="1" dir="s" state="M"/>

</net>
