<?xml version="1.0" encoding="UTF-8"?>

<routes xmlns:xsi="http://www.w3.org/2001/XMLSchema-instance" xsi:noNamespaceSChemaLocation="http://sumo.dlr.de/xds/routes_file.xds">
    <vType id="car" accel="1.0" decel="3.0" length="4" maxSpeed="55.55"/>

    <route id="east_bound" edges="E0 E1" />
    <route id="west_bound" edges="-E1 -E0" />
    <route id="north_bound" edges="-E2 E3" />
    <route id="south_bound" edges="-E3 E2" />

    <flow id="car_flow" color="1,1,0" begin="10" end="300" number="250" route="east_bound" vType="car"/>
    <flow id="car_flow1" color="1,0,0" begin="20" end="300" number="250" route="west_bound" vType="car"/>
    <flow id="car_flow2" color="1,1,0" begin="30" end="300" number="250" route="north_bound" vType="car"/>
    <flow id="car_flow3" color="1,1,0" begin="30" end="300" number="250" route="south_bound" vType="car"/>

</routes>
